Error opening code model "/C"
: No se puede encontrar el módulo especificado.

Error: Library /C couldn't be loaded!
Error opening code model "/C"
: No se puede encontrar el módulo especificado.

Error: Library /C couldn't be loaded!
Error opening code model "/C"
: No se puede encontrar el módulo especificado.

Error: Library /C couldn't be loaded!
Error opening code model "/C"
: No se puede encontrar el módulo especificado.

Error: Library /C couldn't be loaded!
Error opening code model "/C"
: No se puede encontrar el módulo especificado.

Error: Library /C couldn't be loaded!
Error opening code model "/C"
: No se puede encontrar el módulo especificado.

Error: Library /C couldn't be loaded!
Error opening code model "/C"
: No se puede encontrar el módulo especificado.

Error: Library /C couldn't be loaded!

Note: No compatibility mode selected!


Circuit: * dc offset test

Doing analysis at TEMP = 27.000000 and TNOM = 27.000000

Using SPARSE 1.3 as Direct Linear Solver
Note: Starting dynamic gmin stepping
Note: Dynamic gmin stepping completed

No. of Data Rows : 1
v(out0) = -2.40703e-03
v(out1) = -2.41054e-03
v(out2) = -7.22788e-03
v(out3) = -7.22789e-03
v(out4) = -4.78632e-03
v(out5) = -1.20356e-03
v(out6) = -4.75335e-03
v(out7) = -7.23836e-05
v(out8) = -6.03188e-05
v(out9) = -2.41372e-06
v(out10) = -4.83724e-05
v(out11) = -9.65458e-05
v(out12) = -1.20714e-03
v(out13) = -4.82654e-03
v(out14) = -2.41272e-03
v(out15) = -2.41222e-03
v(out16) = -2.41275e-02
v(out17) = -2.41396e-03
v(out18) = -2.41413e-03
v(out19) = -7.23595e-03
Note: Simulation executed from .control section 
