Error opening code model "/C"
: No se puede encontrar el módulo especificado.

Error: Library /C couldn't be loaded!
Error opening code model "/C"
: No se puede encontrar el módulo especificado.

Error: Library /C couldn't be loaded!
Error opening code model "/C"
: No se puede encontrar el módulo especificado.

Error: Library /C couldn't be loaded!
Error opening code model "/C"
: No se puede encontrar el módulo especificado.

Error: Library /C couldn't be loaded!
Error opening code model "/C"
: No se puede encontrar el módulo especificado.

Error: Library /C couldn't be loaded!
Error opening code model "/C"
: No se puede encontrar el módulo especificado.

Error: Library /C couldn't be loaded!
Error opening code model "/C"
: No se puede encontrar el módulo especificado.

Error: Library /C couldn't be loaded!

Note: No compatibility mode selected!


Circuit: * testbench para comparar el comportamiento de los supopamps

Doing analysis at TEMP = 27.000000 and TNOM = 27.000000

Using SPARSE 1.3 as Direct Linear Solver
Note: Starting dynamic gmin stepping
Note: Dynamic gmin stepping completed

No. of Data Rows : 401

Warning: command 'plot' is not available during batch simulation, ignored!
    You may use Gnuplot instead.


Warning: command 'plot' is not available during batch simulation, ignored!
    You may use Gnuplot instead.


Warning: command 'plot' is not available during batch simulation, ignored!
    You may use Gnuplot instead.

Doing analysis at TEMP = 27.000000 and TNOM = 27.000000

Using SPARSE 1.3 as Direct Linear Solver
Note: Starting dynamic gmin stepping
Note: Dynamic gmin stepping completed

Initial Transient Solution
--------------------------

Node                                   Voltage
----                                   -------
vcc                                         15
vee                                        -15
in-                                          0
in+                                          0
x0.x_stage1.xp.in_plus_offset           -0.001
x0.x_stage1.xp.in_plus_final          0.336705
x0.x_stage1.xp.e_cmrr_int1           -0.337705
x0.x_stage1.inp-                      -21358.3
x0.x_stage1.xp.preout                 -15915.5
x0.x_stage1.xp.n_p2_drive             -15915.5
x0.x_stage1.xp.preout2                -15915.5
x0.x_stage1.xp.n_vac                     -13.5
x0.x_stage1.xp.n_limited              -21360.8
x0.out1_p                             -21360.4
x0.x_stage1.xn.in_plus_offset           -0.001
x0.x_stage1.xn.in_plus_final          0.336705
x0.x_stage1.xn.e_cmrr_int1           -0.337705
x0.x_stage1.inn-                      -21358.3
x0.x_stage1.xn.preout                 -15915.5
x0.x_stage1.xn.n_p2_drive             -15915.5
x0.x_stage1.xn.preout2                -15915.5
x0.x_stage1.xn.n_vac                     -13.5
x0.x_stage1.xn.n_limited              -21360.8
x0.out1_n                             -21360.4
x0.x_stage2.xp.in_plus_offset         -21360.4
x0.x_stage2.xp.in_plus_final            -21360
x0.x_stage2.xp.e_cmrr_int1           -0.437724
x0.x_stage2.inp-                      -6323.64
x0.x_stage2.xp.preout                  15915.5
x0.x_stage2.xp.n_p2_drive              15915.5
x0.x_stage2.xp.preout2                 15915.5
x0.x_stage2.xp.n_vac                      13.5
x0.x_stage2.xp.n_limited              -6287.16
x0.out2_p                             -6285.29
x0.x_stage2.xn.in_plus_offset         -21360.4
x0.x_stage2.xn.in_plus_final            -21360
x0.x_stage2.xn.e_cmrr_int1           -0.437772
x0.x_stage2.inn-                      -6326.71
x0.x_stage2.xn.preout                  15915.5
x0.x_stage2.xn.n_p2_drive              15915.5
x0.x_stage2.xn.preout2                 15915.5
x0.x_stage2.xn.n_vac                      13.5
x0.x_stage2.xn.n_limited              -6363.92
x0.out2_n                             -6362.05
x0.opamp_in_minus                     -6529.14
out_ideal                             -8208.16
x0.opamp_in_plus                      -5714.64
x0.x_stage3.in_plus_offset            -5714.64
x0.x_stage3.in_plus_final             -5714.44
x0.x_stage3.e_cmrr_int1              -0.193591
x0.x_stage3.preout                    -15915.5
x0.x_stage3.n_p2_drive                -15915.5
x0.x_stage3.preout2                   -15915.5
x0.x_stage3.n_vac                        -13.5
x0.x_stage3.n_limited                 -8209.84
x1.x_stage1.xp.x1.in_plus_offset          -0.001
x1.x_stage1.xp.x1.in_plus_final        0.223033
x1.x_stage1.xp.x1.e_cmrr_int1        -0.224033
x1.x_stage1.inp-                      -14169.1
x1.x_stage1.xp.x1.preout              -15915.5
x1.x_stage1.xp.x1.n_p2_drive          -15915.5
x1.x_stage1.xp.x1.preout2             -15915.5
x1.x_stage1.xp.x1.n_vac                    -13
x1.x_stage1.xp.x1.n_limited             -14177
x1.out1_p                             -14176.2
x1.x_stage1.xn.x1.in_plus_offset          -0.001
x1.x_stage1.xn.x1.in_plus_final        0.223033
x1.x_stage1.xn.x1.e_cmrr_int1        -0.224033
x1.x_stage1.inn-                      -14169.1
x1.x_stage1.xn.x1.preout              -15915.5
x1.x_stage1.xn.x1.n_p2_drive          -15915.5
x1.x_stage1.xn.x1.preout2             -15915.5
x1.x_stage1.xn.x1.n_vac                    -13
x1.x_stage1.xn.x1.n_limited             -14177
x1.out1_n                             -14176.2
x1.x_stage2.xp.x1.in_plus_offset        -14176.2
x1.x_stage2.xp.x1.in_plus_final        -14175.8
x1.x_stage2.xp.x1.e_cmrr_int1        -0.330037
x1.x_stage2.inp-                      -6697.23
x1.x_stage2.xp.x1.preout               15915.5
x1.x_stage2.xp.x1.n_p2_drive           15915.5
x1.x_stage2.xp.x1.preout2              15915.5
x1.x_stage2.xp.x1.n_vac                     13
x1.x_stage2.xp.x1.n_limited           -6656.83
x1.out2_p                             -6655.45
x1.x_stage2.xn.x1.in_plus_offset        -14176.2
x1.x_stage2.xn.x1.in_plus_final        -14175.8
x1.x_stage2.xn.x1.e_cmrr_int1        -0.330088
x1.x_stage2.inn-                       -6700.4
x1.x_stage2.xn.x1.preout               15915.5
x1.x_stage2.xn.x1.n_p2_drive           15915.5
x1.x_stage2.xn.x1.preout2              15915.5
x1.x_stage2.xn.x1.n_vac                     13
x1.x_stage2.xn.x1.n_limited           -6736.07
x1.out2_n                              -6734.7
x1.opamp_in_minus                     -6895.08
out_lm741                             -8540.87
x1.opamp_in_plus                      -6054.23
x1.x_stage3.x1.in_plus_offset         -6054.24
x1.x_stage3.x1.in_plus_final          -6054.03
x1.x_stage3.x1.e_cmrr_int1           -0.204747
x1.x_stage3.x1.preout                 -15915.5
x1.x_stage3.x1.n_p2_drive             -15915.5
x1.x_stage3.x1.preout2                -15915.5
x1.x_stage3.x1.n_vac                       -13
x1.x_stage3.x1.n_limited               -8542.1
x2.x_stage1.xp.x1.in_plus_offset          -0.003
x2.x_stage1.xp.x1.in_plus_final        0.498186
x2.x_stage1.xp.x1.e_cmrr_int1        -0.501186
x2.x_stage1.inp-                        -20000
x2.x_stage1.xp.x1.preout               -137934
x2.x_stage1.xp.x1.n_p2_drive           -137934
x2.x_stage1.xp.x1.preout2              -137934
x2.x_stage1.xp.x1.n_vac                  -13.5
x2.x_stage1.xp.x1.n_limited             -20000
x2.out1_p                               -20000
x2.x_stage1.xn.x1.in_plus_offset          -0.003
x2.x_stage1.xn.x1.in_plus_final        0.498186
x2.x_stage1.xn.x1.e_cmrr_int1        -0.501186
x2.x_stage1.inn-                        -20000
x2.x_stage1.xn.x1.preout               -137934
x2.x_stage1.xn.x1.n_p2_drive           -137934
x2.x_stage1.xn.x1.preout2              -137934
x2.x_stage1.xn.x1.n_vac                  -13.5
x2.x_stage1.xn.x1.n_limited             -20000
x2.out1_n                               -20000
x2.x_stage2.xp.x1.in_plus_offset          -20000
x2.x_stage2.xp.x1.in_plus_final        -19999.3
x2.x_stage2.xp.x1.e_cmrr_int1          -0.6229
x2.x_stage2.inp-                      -4857.02
x2.x_stage2.xp.x1.preout                137934
x2.x_stage2.xp.x1.n_p2_drive            137934
x2.x_stage2.xp.x1.preout2               137934
x2.x_stage2.xp.x1.n_vac                   13.5
x2.x_stage2.xp.x1.n_limited           -4829.82
x2.out2_p                              -4828.3
x2.x_stage2.xn.x1.in_plus_offset          -20000
x2.x_stage2.xn.x1.in_plus_final        -19999.3
x2.x_stage2.xn.x1.e_cmrr_int1         -0.62296
x2.x_stage2.inn-                      -4859.42
x2.x_stage2.xn.x1.preout                137934
x2.x_stage2.xn.x1.n_p2_drive            137934
x2.x_stage2.xn.x1.preout2               137934
x2.x_stage2.xn.x1.n_vac                   13.5
x2.x_stage2.xn.x1.n_limited           -4889.65
x2.out2_n                             -4888.14
x2.opamp_in_minus                     -5024.27
out_tl081                             -6385.58
x2.opamp_in_plus                      -4389.36
x2.x_stage3.x1.in_plus_offset         -4389.37
x2.x_stage3.x1.in_plus_final          -4389.13
x2.x_stage3.x1.e_cmrr_int1             -0.2359
x2.x_stage3.x1.preout                  -137934
x2.x_stage3.x1.n_p2_drive              -137934
x2.x_stage3.x1.preout2                 -137934
x2.x_stage3.x1.n_vac                     -13.5
x2.x_stage3.x1.n_limited              -6386.94
x3.x_stage1.xp.x1.in_plus_offset          -0.003
x3.x_stage1.xp.x1.in_plus_final        0.498186
x3.x_stage1.xp.x1.e_cmrr_int1        -0.501186
x3.x_stage1.inp-                        -20000
x3.x_stage1.xp.x1.preout               -137934
x3.x_stage1.xp.x1.n_p2_drive           -137934
x3.x_stage1.xp.x1.preout2              -137934
x3.x_stage1.xp.x1.n_vac                  -13.5
x3.x_stage1.xp.x1.n_limited             -20000
x3.out1_p                               -20000
x3.x_stage1.xn.x1.in_plus_offset          -0.003
x3.x_stage1.xn.x1.in_plus_final        0.498186
x3.x_stage1.xn.x1.e_cmrr_int1        -0.501186
x3.x_stage1.inn-                        -20000
x3.x_stage1.xn.x1.preout               -137934
x3.x_stage1.xn.x1.n_p2_drive           -137934
x3.x_stage1.xn.x1.preout2              -137934
x3.x_stage1.xn.x1.n_vac                  -13.5
x3.x_stage1.xn.x1.n_limited             -20000
x3.out1_n                               -20000
x3.x_stage2.xp.x1.in_plus_offset          -20000
x3.x_stage2.xp.x1.in_plus_final        -19999.3
x3.x_stage2.xp.x1.e_cmrr_int1          -0.6229
x3.x_stage2.inp-                      -4857.02
x3.x_stage2.xp.x1.preout                137934
x3.x_stage2.xp.x1.n_p2_drive            137934
x3.x_stage2.xp.x1.preout2               137934
x3.x_stage2.xp.x1.n_vac                   13.5
x3.x_stage2.xp.x1.n_limited           -4829.82
x3.out2_p                              -4828.3
x3.x_stage2.xn.x1.in_plus_offset          -20000
x3.x_stage2.xn.x1.in_plus_final        -19999.3
x3.x_stage2.xn.x1.e_cmrr_int1         -0.62296
x3.x_stage2.inn-                      -4859.42
x3.x_stage2.xn.x1.preout                137934
x3.x_stage2.xn.x1.n_p2_drive            137934
x3.x_stage2.xn.x1.preout2               137934
x3.x_stage2.xn.x1.n_vac                   13.5
x3.x_stage2.xn.x1.n_limited           -4889.65
x3.out2_n                             -4888.14
x3.opamp_in_minus                     -5024.27
out_tl071                             -6385.58
x3.opamp_in_plus                      -4389.36
x3.x_stage3.x1.in_plus_offset         -4389.37
x3.x_stage3.x1.in_plus_final          -4389.13
x3.x_stage3.x1.e_cmrr_int1             -0.2359
x3.x_stage3.x1.preout                  -137934
x3.x_stage3.x1.n_p2_drive              -137934
x3.x_stage3.x1.preout2                 -137934
x3.x_stage3.x1.n_vac                     -13.5
x3.x_stage3.x1.n_limited              -6386.94
x4.x_stage1.xp.x1.in_plus_offset          -0.002
x4.x_stage1.xp.x1.in_plus_final      -0.0019999
x4.x_stage1.xp.x1.e_cmrr_int1      -9.9996e-08
x4.x_stage1.inp-                   -0.00199992
x4.x_stage1.xp.x1.preout           -0.00192792
x4.x_stage1.xp.x1.n_p2_drive       -0.00192792
x4.x_stage1.xp.x1.preout2          -0.00192792
x4.x_stage1.xp.x1.n_vac            -0.00192792
x4.x_stage1.xp.x1.n_limited        -0.00192792
x4.out1_p                          -0.00195492
x4.x_stage1.xn.x1.in_plus_offset          -0.002
x4.x_stage1.xn.x1.in_plus_final      -0.0019999
x4.x_stage1.xn.x1.e_cmrr_int1      -9.9996e-08
x4.x_stage1.inn-                   -0.00199992
x4.x_stage1.xn.x1.preout           -0.00192792
x4.x_stage1.xn.x1.n_p2_drive       -0.00192792
x4.x_stage1.xn.x1.preout2          -0.00192792
x4.x_stage1.xn.x1.n_vac            -0.00192792
x4.x_stage1.xn.x1.n_limited        -0.00192792
x4.out1_n                          -0.00195492
x4.x_stage2.xp.x1.in_plus_offset     -0.00395492
x4.x_stage2.xp.x1.in_plus_final     -0.00395462
x4.x_stage2.xp.x1.e_cmrr_int1     -2.95479e-07
x4.x_stage2.inp-                   -0.00395466
x4.x_stage2.xp.x1.preout           -0.00389456
x4.x_stage2.xp.x1.n_p2_drive       -0.00389456
x4.x_stage2.xp.x1.preout2          -0.00389456
x4.x_stage2.xp.x1.n_vac            -0.00389456
x4.x_stage2.xp.x1.n_limited        -0.00389456
x4.out2_p                          -0.00390967
x4.x_stage2.xn.x1.in_plus_offset     -0.00395492
x4.x_stage2.xn.x1.in_plus_final     -0.00395462
x4.x_stage2.xn.x1.e_cmrr_int1     -2.95479e-07
x4.x_stage2.inn-                   -0.00395466
x4.x_stage2.xn.x1.preout           -0.00383455
x4.x_stage2.xn.x1.n_p2_drive       -0.00383455
x4.x_stage2.xn.x1.preout2          -0.00383455
x4.x_stage2.xn.x1.n_vac            -0.00383455
x4.x_stage2.xn.x1.n_limited        -0.00383455
x4.out2_n                          -0.00390965
x4.opamp_in_minus                  -0.00596306
out_lm358                           -0.0219971
x4.opamp_in_plus                   -0.00396334
x4.x_stage3.x1.in_plus_offset      -0.00596334
x4.x_stage3.x1.in_plus_final       -0.00596284
x4.x_stage3.x1.e_cmrr_int1         -4.9632e-07
x4.x_stage3.x1.preout               -0.0220452
x4.x_stage3.x1.n_p2_drive           -0.0220452
x4.x_stage3.x1.preout2              -0.0220452
x4.x_stage3.x1.n_vac                -0.0220452
x4.x_stage3.x1.n_limited            -0.0220452
x5.x_stage1.xp.x1.in_plus_offset         -0.0005
x5.x_stage1.xp.x1.in_plus_final    -0.000499997
x5.x_stage1.xp.x1.e_cmrr_int1         -2.5e-09
x5.x_stage1.inp-                       -0.0005
x5.x_stage1.xp.x1.preout              -0.00026
x5.x_stage1.xp.x1.n_p2_drive          -0.00026
x5.x_stage1.xp.x1.preout2             -0.00026
x5.x_stage1.xp.x1.n_vac               -0.00026
x5.x_stage1.xp.x1.n_limited           -0.00026
x5.out1_p                              -0.0003
x5.x_stage1.xn.x1.in_plus_offset         -0.0005
x5.x_stage1.xn.x1.in_plus_final    -0.000499997
x5.x_stage1.xn.x1.e_cmrr_int1         -2.5e-09
x5.x_stage1.inn-                       -0.0005
x5.x_stage1.xn.x1.preout              -0.00026
x5.x_stage1.xn.x1.n_p2_drive          -0.00026
x5.x_stage1.xn.x1.preout2             -0.00026
x5.x_stage1.xn.x1.n_vac               -0.00026
x5.x_stage1.xn.x1.n_limited           -0.00026
x5.out1_n                              -0.0003
x5.x_stage2.xp.x1.in_plus_offset         -0.0008
x5.x_stage2.xp.x1.in_plus_final    -0.000799995
x5.x_stage2.xp.x1.e_cmrr_int1         -5.5e-09
x5.x_stage2.inp-                       -0.0008
x5.x_stage2.xp.x1.preout          -0.000562365
x5.x_stage2.xp.x1.n_p2_drive      -0.000562365
x5.x_stage2.xp.x1.preout2         -0.000562365
x5.x_stage2.xp.x1.n_vac           -0.000562365
x5.x_stage2.xp.x1.n_limited       -0.000562365
x5.out2_p                         -0.000600001
x5.x_stage2.xn.x1.in_plus_offset         -0.0008
x5.x_stage2.xn.x1.in_plus_final    -0.000799995
x5.x_stage2.xn.x1.e_cmrr_int1         -5.5e-09
x5.x_stage2.inn-                       -0.0008
x5.x_stage2.xn.x1.preout          -0.000557363
x5.x_stage2.xn.x1.n_p2_drive      -0.000557363
x5.x_stage2.xn.x1.preout2         -0.000557363
x5.x_stage2.xn.x1.n_vac           -0.000557363
x5.x_stage2.xn.x1.n_limited       -0.000557363
x5.out2_n                              -0.0006
x5.opamp_in_minus                  -0.00286367
out_ne5532                         -0.00550037
x5.opamp_in_plus                   -0.00236364
x5.x_stage3.x1.in_plus_offset      -0.00286364
x5.x_stage3.x1.in_plus_final       -0.00286361
x5.x_stage3.x1.e_cmrr_int1        -2.61365e-08
x5.x_stage3.x1.preout                -0.005503
x5.x_stage3.x1.n_p2_drive            -0.005503
x5.x_stage3.x1.preout2               -0.005503
x5.x_stage3.x1.n_vac                 -0.005503
x5.x_stage3.x1.n_limited             -0.005503
x6.x_stage1.xp.x1.in_plus_offset          -3e-05
x6.x_stage1.xp.x1.in_plus_final       0.0228863
x6.x_stage1.xp.x1.e_cmrr_int1       -0.0229163
x6.x_stage1.inp-                      -14493.5
x6.x_stage1.xp.x1.preout              -39788.7
x6.x_stage1.xp.x1.n_p2_drive          -39788.7
x6.x_stage1.xp.x1.preout2             -39788.7
x6.x_stage1.xp.x1.n_vac                    -13
x6.x_stage1.xp.x1.n_limited           -14493.9
x6.out1_p                             -14493.8
x6.x_stage1.xn.x1.in_plus_offset          -3e-05
x6.x_stage1.xn.x1.in_plus_final       0.0228863
x6.x_stage1.xn.x1.e_cmrr_int1       -0.0229163
x6.x_stage1.inn-                      -14493.5
x6.x_stage1.xn.x1.preout              -39788.7
x6.x_stage1.xn.x1.n_p2_drive          -39788.7
x6.x_stage1.xn.x1.preout2             -39788.7
x6.x_stage1.xn.x1.n_vac                    -13
x6.x_stage1.xn.x1.n_limited           -14493.9
x6.out1_n                             -14493.8
x6.x_stage2.xp.x1.in_plus_offset        -14493.8
x6.x_stage2.xp.x1.in_plus_final        -14493.8
x6.x_stage2.xp.x1.e_cmrr_int1       -0.0287341
x6.x_stage2.inp-                      -3679.19
x6.x_stage2.xp.x1.preout               39788.7
x6.x_stage2.xp.x1.n_p2_drive           39788.7
x6.x_stage2.xp.x1.preout2              39788.7
x6.x_stage2.xp.x1.n_vac                     13
x6.x_stage2.xp.x1.n_limited           -3657.97
x6.out2_p                             -3657.29
x6.x_stage2.xn.x1.in_plus_offset        -14493.8
x6.x_stage2.xn.x1.in_plus_final        -14493.8
x6.x_stage2.xn.x1.e_cmrr_int1       -0.0287369
x6.x_stage2.inn-                      -3680.99
x6.x_stage2.xn.x1.preout               39788.7
x6.x_stage2.xn.x1.n_p2_drive           39788.7
x6.x_stage2.xn.x1.preout2              39788.7
x6.x_stage2.xn.x1.n_vac                     13
x6.x_stage2.xn.x1.n_limited           -3703.14
x6.out2_n                             -3702.46
x6.opamp_in_minus                     -3804.14
out_op07                              -4821.89
x6.opamp_in_plus                      -3324.89
x6.x_stage3.x1.in_plus_offset         -3324.89
x6.x_stage3.x1.in_plus_final          -3324.88
x6.x_stage3.x1.e_cmrr_int1           -0.011272
x6.x_stage3.x1.preout                 -39788.7
x6.x_stage3.x1.n_p2_drive             -39788.7
x6.x_stage3.x1.preout2                -39788.7
x6.x_stage3.x1.n_vac                       -13
x6.x_stage3.x1.n_limited               -4822.5
x7.x_stage1.xp.x1.in_plus_offset        -2.5e-05
x7.x_stage1.xp.x1.in_plus_final       0.0141439
x7.x_stage1.xp.x1.e_cmrr_int1       -0.0141689
x7.x_stage1.inp-                      -14202.5
x7.x_stage1.xp.x1.preout              -83556.3
x7.x_stage1.xp.x1.n_p2_drive          -83556.3
x7.x_stage1.xp.x1.preout2             -83556.3
x7.x_stage1.xp.x1.n_vac                    -13
x7.x_stage1.xp.x1.n_limited           -14206.5
x7.out1_p                             -14206.1
x7.x_stage1.xn.x1.in_plus_offset        -2.5e-05
x7.x_stage1.xn.x1.in_plus_final       0.0141439
x7.x_stage1.xn.x1.e_cmrr_int1       -0.0141689
x7.x_stage1.inn-                      -14202.5
x7.x_stage1.xn.x1.preout              -83556.3
x7.x_stage1.xn.x1.n_p2_drive          -83556.3
x7.x_stage1.xn.x1.preout2             -83556.3
x7.x_stage1.xn.x1.n_vac                    -13
x7.x_stage1.xn.x1.n_limited           -14206.5
x7.out1_n                             -14206.1
x7.x_stage2.xp.x1.in_plus_offset        -14206.1
x7.x_stage2.xp.x1.in_plus_final        -14206.1
x7.x_stage2.xp.x1.e_cmrr_int1       -0.0193933
x7.x_stage2.inp-                      -5233.23
x7.x_stage2.xp.x1.preout               83556.3
x7.x_stage2.xp.x1.n_p2_drive           83556.3
x7.x_stage2.xp.x1.preout2              83556.3
x7.x_stage2.xp.x1.n_vac                     13
x7.x_stage2.xp.x1.n_limited           -5201.93
x7.out2_p                              -5200.9
x7.x_stage2.xn.x1.in_plus_offset        -14206.1
x7.x_stage2.xn.x1.in_plus_final        -14206.1
x7.x_stage2.xn.x1.e_cmrr_int1       -0.0193958
x7.x_stage2.inn-                      -5235.74
x7.x_stage2.xn.x1.preout               83556.3
x7.x_stage2.xn.x1.n_p2_drive           83556.3
x7.x_stage2.xn.x1.preout2              83556.3
x7.x_stage2.xn.x1.n_vac                     13
x7.x_stage2.xn.x1.n_limited           -5264.61
x7.out2_n                             -5263.58
x7.opamp_in_minus                     -5394.69
out_op27                              -6722.36
x7.opamp_in_plus                       -4729.6
x7.x_stage3.x1.in_plus_offset          -4729.6
x7.x_stage3.x1.in_plus_final          -4729.59
x7.x_stage3.x1.e_cmrr_int1          -0.0101003
x7.x_stage3.x1.preout                 -83556.3
x7.x_stage3.x1.n_p2_drive             -83556.3
x7.x_stage3.x1.preout2                -83556.3
x7.x_stage3.x1.n_vac                       -13
x7.x_stage3.x1.n_limited              -6723.29
x8.x_stage1.xp.x1.in_plus_offset          -1e-06
x8.x_stage1.xp.x1.in_plus_final        0.014999
x8.x_stage1.xp.x1.e_cmrr_int1           -0.015
x8.x_stage1.inp-                      -29999.9
x8.x_stage1.xp.x1.preout               -190986
x8.x_stage1.xp.x1.n_p2_drive           -190986
x8.x_stage1.xp.x1.preout2              -190986
x8.x_stage1.xp.x1.n_vac                 -14.99
x8.x_stage1.xp.x1.n_limited           -29999.9
x8.out1_p                             -29999.9
x8.x_stage1.xn.x1.in_plus_offset          -1e-06
x8.x_stage1.xn.x1.in_plus_final        0.014999
x8.x_stage1.xn.x1.e_cmrr_int1           -0.015
x8.x_stage1.inn-                      -29999.9
x8.x_stage1.xn.x1.preout               -190986
x8.x_stage1.xn.x1.n_p2_drive           -190986
x8.x_stage1.xn.x1.preout2              -190986
x8.x_stage1.xn.x1.n_vac                 -14.99
x8.x_stage1.xn.x1.n_limited           -29999.9
x8.out1_n                             -29999.9
x8.x_stage2.xp.x1.in_plus_offset        -29999.9
x8.x_stage2.xp.x1.in_plus_final        -29999.9
x8.x_stage2.xp.x1.e_cmrr_int1       -0.0164863
x8.x_stage2.inp-                       -2972.7
x8.x_stage2.xp.x1.preout                190986
x8.x_stage2.xp.x1.n_p2_drive            190986
x8.x_stage2.xp.x1.preout2               190986
x8.x_stage2.xp.x1.n_vac                  14.99
x8.x_stage2.xp.x1.n_limited            -2975.4
x8.out2_p                              -2972.7
x8.x_stage2.xn.x1.in_plus_offset        -29999.9
x8.x_stage2.xn.x1.in_plus_final        -29999.9
x8.x_stage2.xn.x1.e_cmrr_int1       -0.0164863
x8.x_stage2.inn-                       -2972.7
x8.x_stage2.xn.x1.preout                190986
x8.x_stage2.xn.x1.n_p2_drive            190986
x8.x_stage2.xn.x1.preout2               190986
x8.x_stage2.xn.x1.n_vac                  14.99
x8.x_stage2.xn.x1.n_limited            -2975.4
x8.out2_n                              -2972.7
x8.opamp_in_minus                     -2702.45
out_ad8628                           0.0271792
x8.opamp_in_plus                      -2702.45
x8.x_stage3.x1.in_plus_offset         -2702.45
x8.x_stage3.x1.in_plus_final          -2702.45
x8.x_stage3.x1.e_cmrr_int1         -0.00270245
x8.x_stage3.x1.preout                  2.72965
x8.x_stage3.x1.n_p2_drive              2.72965
x8.x_stage3.x1.preout2                 2.72965
x8.x_stage3.x1.n_vac                   2.72965
x8.x_stage3.x1.n_limited               2.72965
x9.x_stage1.xp.x1.in_plus_offset          -2e-05
x9.x_stage1.xp.x1.in_plus_final       0.0149516
x9.x_stage1.xp.x1.e_cmrr_int1       -0.0149716
x9.x_stage1.inp-                      -29943.1
x9.x_stage1.xp.x1.preout               -163399
x9.x_stage1.xp.x1.n_p2_drive           -163399
x9.x_stage1.xp.x1.preout2              -163399
x9.x_stage1.xp.x1.n_vac                  -13.5
x9.x_stage1.xp.x1.n_limited           -29943.1
x9.out1_p                             -29943.1
x9.x_stage1.xn.x1.in_plus_offset          -2e-05
x9.x_stage1.xn.x1.in_plus_final       0.0149516
x9.x_stage1.xn.x1.e_cmrr_int1       -0.0149716
x9.x_stage1.inn-                      -29943.1
x9.x_stage1.xn.x1.preout               -163399
x9.x_stage1.xn.x1.n_p2_drive           -163399
x9.x_stage1.xn.x1.preout2              -163399
x9.x_stage1.xn.x1.n_vac                  -13.5
x9.x_stage1.xn.x1.n_limited           -29943.1
x9.out1_n                             -29943.1
x9.x_stage2.xp.x1.in_plus_offset        -29943.1
x9.x_stage2.xp.x1.in_plus_final        -29943.1
x9.x_stage2.xp.x1.e_cmrr_int1       -0.0164593
x9.x_stage2.inp-                      -2975.56
x9.x_stage2.xp.x1.preout                163399
x9.x_stage2.xp.x1.n_p2_drive            163399
x9.x_stage2.xp.x1.preout2               163399
x9.x_stage2.xp.x1.n_vac                   13.5
x9.x_stage2.xp.x1.n_limited           -2976.61
x9.out2_p                             -2975.53
x9.x_stage2.xn.x1.in_plus_offset        -29943.1
x9.x_stage2.xn.x1.in_plus_final        -29943.1
x9.x_stage2.xn.x1.e_cmrr_int1       -0.0164593
x9.x_stage2.inn-                      -2975.56
x9.x_stage2.xn.x1.preout                163399
x9.x_stage2.xn.x1.n_p2_drive            163399
x9.x_stage2.xn.x1.preout2               163399
x9.x_stage2.xn.x1.n_vac                   13.5
x9.x_stage2.xn.x1.n_limited           -2976.61
x9.out2_n                             -2975.53
x9.opamp_in_minus                     -2705.03
out_lt1028                           0.0270042
x9.opamp_in_plus                      -2705.03
x9.x_stage3.x1.in_plus_offset         -2705.03
x9.x_stage3.x1.in_plus_final          -2705.03
x9.x_stage3.x1.e_cmrr_int1         -0.00270503
x9.x_stage3.x1.preout                  1.10902
x9.x_stage3.x1.n_p2_drive              1.10902
x9.x_stage3.x1.preout2                 1.10902
x9.x_stage3.x1.n_vac                   1.10902
x9.x_stage3.x1.n_limited               1.10902
x10.x_stage1.xp.x1.in_plus_offset          -4e-05
x10.x_stage1.xp.x1.in_plus_final          -4e-05
x10.x_stage1.xp.x1.e_cmrr_int1    -1.99999e-11
x10.x_stage1.inp-                 -3.99997e-05
x10.x_stage1.xp.x1.preout             0.000235
x10.x_stage1.xp.x1.n_p2_drive         0.000235
x10.x_stage1.xp.x1.preout2            0.000235
x10.x_stage1.xp.x1.n_vac              0.000235
x10.x_stage1.xp.x1.n_limited          0.000235
x10.out1_p                             0.00021
x10.x_stage1.xn.x1.in_plus_offset          -4e-05
x10.x_stage1.xn.x1.in_plus_final          -4e-05
x10.x_stage1.xn.x1.e_cmrr_int1    -1.99999e-11
x10.x_stage1.inn-                 -3.99997e-05
x10.x_stage1.xn.x1.preout             0.000235
x10.x_stage1.xn.x1.n_p2_drive         0.000235
x10.x_stage1.xn.x1.preout2            0.000235
x10.x_stage1.xn.x1.n_vac              0.000235
x10.x_stage1.xn.x1.n_limited          0.000235
x10.out1_n                             0.00021
x10.x_stage2.xp.x1.in_plus_offset         0.00017
x10.x_stage2.xp.x1.in_plus_final         0.00017
x10.x_stage2.xp.x1.e_cmrr_int1         1.9e-10
x10.x_stage2.inp-                  0.000170001
x10.x_stage2.xp.x1.preout          0.000444052
x10.x_stage2.xp.x1.n_p2_drive      0.000444052
x10.x_stage2.xp.x1.preout2         0.000444052
x10.x_stage2.xp.x1.n_vac           0.000444052
x10.x_stage2.xp.x1.n_limited       0.000444052
x10.out2_p                         0.000419995
x10.x_stage2.xn.x1.in_plus_offset         0.00017
x10.x_stage2.xn.x1.in_plus_final         0.00017
x10.x_stage2.xn.x1.e_cmrr_int1         1.9e-10
x10.x_stage2.inn-                  0.000170001
x10.x_stage2.xn.x1.preout          0.000444255
x10.x_stage2.xn.x1.n_p2_drive      0.000444255
x10.x_stage2.xn.x1.preout2         0.000444255
x10.x_stage2.xn.x1.n_vac           0.000444255
x10.x_stage2.xn.x1.n_limited       0.000444255
x10.out2_n                         0.000420001
x10.opamp_in_minus                 -0.00193091
out_ad797                         -0.000440036
x10.opamp_in_plus                  -0.00189091
x10.x_stage3.x1.in_plus_offset     -0.00193091
x10.x_stage3.x1.in_plus_final      -0.00193091
x10.x_stage3.x1.e_cmrr_int1       -1.91091e-09
x10.x_stage3.x1.preout             -0.00043929
x10.x_stage3.x1.n_p2_drive         -0.00043929
x10.x_stage3.x1.preout2            -0.00043929
x10.x_stage3.x1.n_vac              -0.00043929
x10.x_stage3.x1.n_limited          -0.00043929
x11.x_stage1.xp.x1.in_plus_offset         -0.0005
x11.x_stage1.xp.x1.in_plus_final    -0.000499998
x11.x_stage1.xp.x1.e_cmrr_int1    -2.49999e-09
x11.x_stage1.inp-                 -0.000499998
x11.x_stage1.xp.x1.preout         -0.000499989
x11.x_stage1.xp.x1.n_p2_drive     -0.000499989
x11.x_stage1.xp.x1.preout2        -0.000499989
x11.x_stage1.xp.x1.n_vac          -0.000499989
x11.x_stage1.xp.x1.n_limited      -0.000499989
x11.out1_p                        -0.000499993
x11.x_stage1.xn.x1.in_plus_offset         -0.0005
x11.x_stage1.xn.x1.in_plus_final    -0.000499998
x11.x_stage1.xn.x1.e_cmrr_int1    -2.49999e-09
x11.x_stage1.inn-                 -0.000499998
x11.x_stage1.xn.x1.preout         -0.000499989
x11.x_stage1.xn.x1.n_p2_drive     -0.000499989
x11.x_stage1.xn.x1.preout2        -0.000499989
x11.x_stage1.xn.x1.n_vac          -0.000499989
x11.x_stage1.xn.x1.n_limited      -0.000499989
x11.out1_n                        -0.000499993
x11.x_stage2.xp.x1.in_plus_offset    -0.000999993
x11.x_stage2.xp.x1.in_plus_final       0.0163415
x11.x_stage2.xp.x1.e_cmrr_int1      -0.0173415
x11.x_stage2.inp-                      -3468.3
x11.x_stage2.xp.x1.preout              -397887
x11.x_stage2.xp.x1.n_p2_drive          -397887
x11.x_stage2.xp.x1.preout2             -397887
x11.x_stage2.xp.x1.n_vac                 -13.8
x11.x_stage2.xp.x1.n_limited          -3468.61
x11.out2_p                             -3468.3
x11.x_stage2.xn.x1.in_plus_offset    -0.000999993
x11.x_stage2.xn.x1.in_plus_final       0.0163415
x11.x_stage2.xn.x1.e_cmrr_int1      -0.0173415
x11.x_stage2.inn-                      -3468.3
x11.x_stage2.xn.x1.preout              -397887
x11.x_stage2.xn.x1.n_p2_drive          -397887
x11.x_stage2.xn.x1.preout2             -397887
x11.x_stage2.xn.x1.n_vac                 -13.8
x11.x_stage2.xn.x1.n_limited          -3468.61
x11.out2_n                             -3468.3
x11.opamp_in_minus                    -3152.97
out_opa2134                           0.312089
x11.opamp_in_plus                        -3153
x11.x_stage3.x1.in_plus_offset           -3153
x11.x_stage3.x1.in_plus_final         -3152.97
x11.x_stage3.x1.e_cmrr_int1         -0.0315298
x11.x_stage3.x1.preout                0.627417
x11.x_stage3.x1.n_p2_drive            0.627417
x11.x_stage3.x1.preout2               0.627417
x11.x_stage3.x1.n_vac                 0.627417
x11.x_stage3.x1.n_limited             0.627417
x12.x_stage1.xp.x1.in_plus_offset          -0.002
x12.x_stage1.xp.x1.in_plus_final           1.098
x12.x_stage1.xp.x1.e_cmrr_int1            -1.1
x12.x_stage1.inp-                       -22000
x12.x_stage1.xp.x1.preout             -1307.34
x12.x_stage1.xp.x1.n_p2_drive         -1307.34
x12.x_stage1.xp.x1.preout2            -1307.34
x12.x_stage1.xp.x1.n_vac               -14.975
x12.x_stage1.xp.x1.n_limited            -22000
x12.out1_p                              -22000
x12.x_stage1.xn.x1.in_plus_offset          -0.002
x12.x_stage1.xn.x1.in_plus_final           1.098
x12.x_stage1.xn.x1.e_cmrr_int1            -1.1
x12.x_stage1.inn-                       -22000
x12.x_stage1.xn.x1.preout             -1307.34
x12.x_stage1.xn.x1.n_p2_drive         -1307.34
x12.x_stage1.xn.x1.preout2            -1307.34
x12.x_stage1.xn.x1.n_vac               -14.975
x12.x_stage1.xn.x1.n_limited            -22000
x12.out1_n                              -22000
x12.x_stage2.xp.x1.in_plus_offset          -22000
x12.x_stage2.xp.x1.in_plus_final        -21998.6
x12.x_stage2.xp.x1.e_cmrr_int1         -1.3671
x12.x_stage2.inp-                     -5341.94
x12.x_stage2.xp.x1.preout              1307.34
x12.x_stage2.xp.x1.n_p2_drive          1307.34
x12.x_stage2.xp.x1.preout2             1307.34
x12.x_stage2.xp.x1.n_vac                14.975
x12.x_stage2.xp.x1.n_limited          -5315.35
x12.out2_p                            -5310.35
x12.x_stage2.xn.x1.in_plus_offset          -22000
x12.x_stage2.xn.x1.in_plus_final        -21998.6
x12.x_stage2.xn.x1.e_cmrr_int1        -1.36723
x12.x_stage2.inn-                     -5344.57
x12.x_stage2.xn.x1.preout              1307.34
x12.x_stage2.xn.x1.n_p2_drive          1307.34
x12.x_stage2.xn.x1.preout2             1307.34
x12.x_stage2.xn.x1.n_vac                14.975
x12.x_stage2.xn.x1.n_limited          -5381.15
x12.out2_n                            -5376.16
x12.opamp_in_minus                    -5525.89
out_mcp601                            -7023.12
x12.opamp_in_plus                     -4827.59
x12.x_stage3.x1.in_plus_offset        -4827.59
x12.x_stage3.x1.in_plus_final         -4827.07
x12.x_stage3.x1.e_cmrr_int1          -0.517674
x12.x_stage3.x1.preout                -1307.34
x12.x_stage3.x1.n_p2_drive            -1307.34
x12.x_stage3.x1.preout2               -1307.34
x12.x_stage3.x1.n_vac                  -14.975
x12.x_stage3.x1.n_limited             -7027.62
x13.x_stage1.xp.x1.in_plus_offset          -0.002
x13.x_stage1.xp.x1.in_plus_final      -0.0019999
x13.x_stage1.xp.x1.e_cmrr_int1    -9.91698e-08
x13.x_stage1.inp-                   -0.0019834
x13.x_stage1.xp.x1.preout            0.0495166
x13.x_stage1.xp.x1.n_p2_drive        0.0495166
x13.x_stage1.xp.x1.preout2           0.0495166
x13.x_stage1.xp.x1.n_vac             0.0495166
x13.x_stage1.xp.x1.n_limited         0.0495166
x13.out1_p                           0.0480166
x13.x_stage1.xn.x1.in_plus_offset          -0.002
x13.x_stage1.xn.x1.in_plus_final      -0.0019999
x13.x_stage1.xn.x1.e_cmrr_int1    -9.91698e-08
x13.x_stage1.inn-                   -0.0019834
x13.x_stage1.xn.x1.preout            0.0495166
x13.x_stage1.xn.x1.n_p2_drive        0.0495166
x13.x_stage1.xn.x1.preout2           0.0495166
x13.x_stage1.xn.x1.n_vac             0.0495166
x13.x_stage1.xn.x1.n_limited         0.0495166
x13.out1_n                           0.0480166
x13.x_stage2.xp.x1.in_plus_offset       0.0460166
x13.x_stage2.xp.x1.in_plus_final       0.0460119
x13.x_stage2.xp.x1.e_cmrr_int1     4.70305e-06
x13.x_stage2.inp-                    0.0460444
x13.x_stage2.xp.x1.preout            0.0974894
x13.x_stage2.xp.x1.n_p2_drive        0.0974894
x13.x_stage2.xp.x1.preout2           0.0974894
x13.x_stage2.xp.x1.n_vac             0.0974894
x13.x_stage2.xp.x1.n_limited         0.0974894
x13.out2_p                           0.0960445
x13.x_stage2.xn.x1.in_plus_offset       0.0460166
x13.x_stage2.xn.x1.in_plus_final       0.0460119
x13.x_stage2.xn.x1.e_cmrr_int1     4.70305e-06
x13.x_stage2.inn-                    0.0460444
x13.x_stage2.xn.x1.preout            0.0974924
x13.x_stage2.xn.x1.n_p2_drive        0.0974924
x13.x_stage2.xn.x1.preout2           0.0974924
x13.x_stage2.xn.x1.n_vac             0.0974924
x13.x_stage2.xn.x1.n_limited         0.0974924
x13.out2_n                           0.0960445
x13.opamp_in_minus                   -0.369203
out_ad8009                          -0.0216774
x13.opamp_in_plus                    -0.367232
x13.x_stage3.x1.in_plus_offset       -0.369232
x13.x_stage3.x1.in_plus_final        -0.369196
x13.x_stage3.x1.e_cmrr_int1       -3.68218e-05
x13.x_stage3.x1.preout              -0.0216253
x13.x_stage3.x1.n_p2_drive          -0.0216253
x13.x_stage3.x1.preout2             -0.0216253
x13.x_stage3.x1.n_vac               -0.0216253
x13.x_stage3.x1.n_limited           -0.0216253
x14.x_stage1.xp.x1.in_plus_offset          -0.001
x14.x_stage1.xp.x1.in_plus_final     -0.00099995
x14.x_stage1.xp.x1.e_cmrr_int1     -4.9853e-08
x14.x_stage1.inp-                  -0.00099706
x14.x_stage1.xp.x1.preout            0.0144529
x14.x_stage1.xp.x1.n_p2_drive        0.0144529
x14.x_stage1.xp.x1.preout2           0.0144529
x14.x_stage1.xp.x1.n_vac             0.0144529
x14.x_stage1.xp.x1.n_limited         0.0144529
x14.out1_p                           0.0140029
x14.x_stage1.xn.x1.in_plus_offset          -0.001
x14.x_stage1.xn.x1.in_plus_final     -0.00099995
x14.x_stage1.xn.x1.e_cmrr_int1     -4.9853e-08
x14.x_stage1.inn-                  -0.00099706
x14.x_stage1.xn.x1.preout            0.0144529
x14.x_stage1.xn.x1.n_p2_drive        0.0144529
x14.x_stage1.xn.x1.preout2           0.0144529
x14.x_stage1.xn.x1.n_vac             0.0144529
x14.x_stage1.xn.x1.n_limited         0.0144529
x14.out1_n                           0.0140029
x14.x_stage2.xp.x1.in_plus_offset       0.0130029
x14.x_stage2.xp.x1.in_plus_final       0.0130016
x14.x_stage2.xp.x1.e_cmrr_int1     1.35051e-06
x14.x_stage2.inp-                    0.0130073
x14.x_stage2.xp.x1.preout            0.0284406
x14.x_stage2.xp.x1.n_p2_drive        0.0284406
x14.x_stage2.xp.x1.preout2           0.0284406
x14.x_stage2.xp.x1.n_vac             0.0284406
x14.x_stage2.xp.x1.n_limited         0.0284406
x14.out2_p                           0.0280073
x14.x_stage2.xn.x1.in_plus_offset       0.0130029
x14.x_stage2.xn.x1.in_plus_final       0.0130016
x14.x_stage2.xn.x1.e_cmrr_int1     1.35051e-06
x14.x_stage2.inn-                    0.0130073
x14.x_stage2.xn.x1.preout            0.0284421
x14.x_stage2.xn.x1.n_p2_drive        0.0284421
x14.x_stage2.xn.x1.preout2           0.0284421
x14.x_stage2.xn.x1.n_vac             0.0284421
x14.x_stage2.xn.x1.n_limited         0.0284421
x14.out2_n                           0.0280073
x14.opamp_in_minus                   -0.111894
out_lmh6702                         -0.0109019
x14.opamp_in_plus                    -0.110902
x14.x_stage3.x1.in_plus_offset       -0.111902
x14.x_stage3.x1.in_plus_final        -0.111891
x14.x_stage3.x1.e_cmrr_int1       -1.11398e-05
x14.x_stage3.x1.preout              -0.0108868
x14.x_stage3.x1.n_p2_drive          -0.0108868
x14.x_stage3.x1.preout2             -0.0108868
x14.x_stage3.x1.n_vac               -0.0108868
x14.x_stage3.x1.n_limited           -0.0108868
x15.x_stage1.xp.x1.in_plus_offset          -0.001
x15.x_stage1.xp.x1.in_plus_final     -0.00099995
x15.x_stage1.xp.x1.e_cmrr_int1    -4.99923e-08
x15.x_stage1.inp-                 -0.000999846
x15.x_stage1.xp.x1.preout           0.00104015
x15.x_stage1.xp.x1.n_p2_drive       0.00104015
x15.x_stage1.xp.x1.preout2          0.00104015
x15.x_stage1.xp.x1.n_vac            0.00104015
x15.x_stage1.xp.x1.n_limited        0.00104015
x15.out1_p                          0.00100015
x15.x_stage1.xn.x1.in_plus_offset          -0.001
x15.x_stage1.xn.x1.in_plus_final     -0.00099995
x15.x_stage1.xn.x1.e_cmrr_int1    -4.99923e-08
x15.x_stage1.inn-                 -0.000999846
x15.x_stage1.xn.x1.preout           0.00104015
x15.x_stage1.xn.x1.n_p2_drive       0.00104015
x15.x_stage1.xn.x1.preout2          0.00104015
x15.x_stage1.xn.x1.n_vac            0.00104015
x15.x_stage1.xn.x1.n_limited        0.00104015
x15.out1_n                          0.00100015
x15.x_stage2.xp.x1.in_plus_offset     1.54112e-07
x15.x_stage2.xp.x1.in_plus_final     1.04089e-07
x15.x_stage2.xp.x1.e_cmrr_int1     5.00231e-08
x15.x_stage2.inp-                  3.07956e-07
x15.x_stage2.xp.x1.preout           0.00203867
x15.x_stage2.xp.x1.n_p2_drive       0.00203867
x15.x_stage2.xp.x1.preout2          0.00203867
x15.x_stage2.xp.x1.n_vac            0.00203867
x15.x_stage2.xp.x1.n_limited        0.00203867
x15.out2_p                          0.00200031
x15.x_stage2.xn.x1.in_plus_offset     1.54112e-07
x15.x_stage2.xn.x1.in_plus_final     1.04089e-07
x15.x_stage2.xn.x1.e_cmrr_int1     5.00231e-08
x15.x_stage2.inn-                  3.08056e-07
x15.x_stage2.xn.x1.preout           0.00203967
x15.x_stage2.xn.x1.n_p2_drive       0.00203967
x15.x_stage2.xn.x1.preout2          0.00203967
x15.x_stage2.xn.x1.n_vac            0.00203967
x15.x_stage2.xn.x1.n_limited        0.00203967
x15.out2_n                          0.00200031
x15.opamp_in_minus                  -0.0173628
out_ths3001                         -0.0109938
x15.opamp_in_plus                   -0.0163634
x15.x_stage3.x1.in_plus_offset      -0.0173634
x15.x_stage3.x1.in_plus_final       -0.0173617
x15.x_stage3.x1.e_cmrr_int1       -1.68631e-06
x15.x_stage3.x1.preout              -0.0109932
x15.x_stage3.x1.n_p2_drive          -0.0109932
x15.x_stage3.x1.preout2             -0.0109932
x15.x_stage3.x1.n_vac               -0.0109932
x15.x_stage3.x1.n_limited           -0.0109932
x16.x_stage1.xp.x1.in_plus_offset           -0.01
x16.x_stage1.xp.x1.in_plus_final     -0.00999842
x16.x_stage1.xp.x1.e_cmrr_int1    -1.58092e-06
x16.x_stage1.inp-                   -0.0099986
x16.x_stage1.xp.x1.preout           -0.0089966
x16.x_stage1.xp.x1.n_p2_drive       -0.0089966
x16.x_stage1.xp.x1.preout2          -0.0089966
x16.x_stage1.xp.x1.n_vac            -0.0089966
x16.x_stage1.xp.x1.n_limited        -0.0089966
x16.out1_p                          -0.0089986
x16.x_stage1.xn.x1.in_plus_offset           -0.01
x16.x_stage1.xn.x1.in_plus_final     -0.00999842
x16.x_stage1.xn.x1.e_cmrr_int1    -1.58092e-06
x16.x_stage1.inn-                   -0.0099986
x16.x_stage1.xn.x1.preout           -0.0089966
x16.x_stage1.xn.x1.n_p2_drive       -0.0089966
x16.x_stage1.xn.x1.preout2          -0.0089966
x16.x_stage1.xn.x1.n_vac            -0.0089966
x16.x_stage1.xn.x1.n_limited        -0.0089966
x16.out1_n                          -0.0089986
x16.x_stage2.xp.x1.in_plus_offset      -0.0189986
x16.x_stage2.xp.x1.in_plus_final      -0.0189942
x16.x_stage2.xp.x1.e_cmrr_int1     -4.4261e-06
x16.x_stage2.inp-                   -0.0189945
x16.x_stage2.xp.x1.preout           -0.0179928
x16.x_stage2.xp.x1.n_p2_drive       -0.0179928
x16.x_stage2.xp.x1.preout2          -0.0179928
x16.x_stage2.xp.x1.n_vac            -0.0179928
x16.x_stage2.xp.x1.n_limited        -0.0179928
x16.out2_p                          -0.0179945
x16.x_stage2.xn.x1.in_plus_offset      -0.0189986
x16.x_stage2.xn.x1.in_plus_final      -0.0189942
x16.x_stage2.xn.x1.e_cmrr_int1     -4.4261e-06
x16.x_stage2.inn-                   -0.0189945
x16.x_stage2.xn.x1.preout           -0.0179918
x16.x_stage2.xn.x1.n_p2_drive       -0.0179918
x16.x_stage2.xn.x1.preout2          -0.0179918
x16.x_stage2.xn.x1.n_vac            -0.0179918
x16.x_stage2.xn.x1.n_limited        -0.0179918
x16.out2_n                          -0.0179945
x16.opamp_in_minus                  -0.0354424
out_l272                             -0.109923
x16.opamp_in_plus                   -0.0254498
x16.x_stage3.x1.in_plus_offset      -0.0354498
x16.x_stage3.x1.in_plus_final       -0.0354402
x16.x_stage3.x1.e_cmrr_int1       -9.62789e-06
x16.x_stage3.x1.preout               -0.109923
x16.x_stage3.x1.n_p2_drive           -0.109923
x16.x_stage3.x1.preout2              -0.109923
x16.x_stage3.x1.n_vac                -0.109923
x16.x_stage3.x1.n_limited            -0.109923
x17.x_stage1.xp.x1.in_plus_offset          -0.001
x17.x_stage1.xp.x1.in_plus_final    -0.000999984
x17.x_stage1.xp.x1.e_cmrr_int1    -1.58115e-08
x17.x_stage1.inp-                       -0.001
x17.x_stage1.xp.x1.preout         -0.000999964
x17.x_stage1.xp.x1.n_p2_drive     -0.000999964
x17.x_stage1.xp.x1.preout2        -0.000999964
x17.x_stage1.xp.x1.n_vac          -0.000999964
x17.x_stage1.xp.x1.n_limited      -0.000999964
x17.out1_p                        -0.000999964
x17.x_stage1.xn.x1.in_plus_offset          -0.001
x17.x_stage1.xn.x1.in_plus_final    -0.000999984
x17.x_stage1.xn.x1.e_cmrr_int1    -1.58115e-08
x17.x_stage1.inn-                       -0.001
x17.x_stage1.xn.x1.preout         -0.000999964
x17.x_stage1.xn.x1.n_p2_drive     -0.000999964
x17.x_stage1.xn.x1.preout2        -0.000999964
x17.x_stage1.xn.x1.n_vac          -0.000999964
x17.x_stage1.xn.x1.n_limited      -0.000999964
x17.out1_n                        -0.000999964
x17.x_stage2.xp.x1.in_plus_offset     -0.00199996
x17.x_stage2.xp.x1.in_plus_final     -0.00199992
x17.x_stage2.xp.x1.e_cmrr_int1    -4.74329e-08
x17.x_stage2.inp-                  -0.00199996
x17.x_stage2.xp.x1.preout          -0.00199992
x17.x_stage2.xp.x1.n_p2_drive      -0.00199992
x17.x_stage2.xp.x1.preout2         -0.00199992
x17.x_stage2.xp.x1.n_vac           -0.00199992
x17.x_stage2.xp.x1.n_limited       -0.00199992
x17.out2_p                         -0.00199992
x17.x_stage2.xn.x1.in_plus_offset     -0.00199996
x17.x_stage2.xn.x1.in_plus_final     -0.00199992
x17.x_stage2.xn.x1.e_cmrr_int1    -4.74329e-08
x17.x_stage2.inn-                  -0.00199996
x17.x_stage2.xn.x1.preout          -0.00199991
x17.x_stage2.xn.x1.n_p2_drive      -0.00199991
x17.x_stage2.xn.x1.preout2         -0.00199991
x17.x_stage2.xn.x1.n_vac           -0.00199991
x17.x_stage2.xn.x1.n_limited       -0.00199991
x17.out2_n                         -0.00199992
x17.opamp_in_minus                 -0.00281862
out_opa541                          -0.0110016
x17.opamp_in_plus                  -0.00181847
x17.x_stage3.x1.in_plus_offset     -0.00281847
x17.x_stage3.x1.in_plus_final       -0.0028184
x17.x_stage3.x1.e_cmrr_int1       -7.33188e-08
x17.x_stage3.x1.preout              -0.0110016
x17.x_stage3.x1.n_p2_drive          -0.0110016
x17.x_stage3.x1.preout2             -0.0110016
x17.x_stage3.x1.n_vac               -0.0110016
x17.x_stage3.x1.n_limited           -0.0110016
x18.x_stage1.xp.x1.in_plus_offset          -0.001
x18.x_stage1.xp.x1.in_plus_final    -0.000999998
x18.x_stage1.xp.x1.e_cmrr_int1    -1.58115e-09
x18.x_stage1.inp-                  -0.00100001
x18.x_stage1.xp.x1.preout         -0.000799966
x18.x_stage1.xp.x1.n_p2_drive     -0.000799966
x18.x_stage1.xp.x1.preout2        -0.000799966
x18.x_stage1.xp.x1.n_vac          -0.000799966
x18.x_stage1.xp.x1.n_limited      -0.000799966
x18.out1_p                        -0.000800006
x18.x_stage1.xn.x1.in_plus_offset          -0.001
x18.x_stage1.xn.x1.in_plus_final    -0.000999998
x18.x_stage1.xn.x1.e_cmrr_int1    -1.58115e-09
x18.x_stage1.inn-                  -0.00100001
x18.x_stage1.xn.x1.preout         -0.000799966
x18.x_stage1.xn.x1.n_p2_drive     -0.000799966
x18.x_stage1.xn.x1.preout2        -0.000799966
x18.x_stage1.xn.x1.n_vac          -0.000799966
x18.x_stage1.xn.x1.n_limited      -0.000799966
x18.out1_n                        -0.000800006
x18.x_stage2.xp.x1.in_plus_offset     -0.00180001
x18.x_stage2.xp.x1.in_plus_final         -0.0018
x18.x_stage2.xp.x1.e_cmrr_int1      -4.111e-09
x18.x_stage2.inp-                  -0.00180002
x18.x_stage2.xp.x1.preout          -0.00159998
x18.x_stage2.xp.x1.n_p2_drive      -0.00159998
x18.x_stage2.xp.x1.preout2         -0.00159998
x18.x_stage2.xp.x1.n_vac           -0.00159998
x18.x_stage2.xp.x1.n_limited       -0.00159998
x18.out2_p                         -0.00160002
x18.x_stage2.xn.x1.in_plus_offset     -0.00180001
x18.x_stage2.xn.x1.in_plus_final         -0.0018
x18.x_stage2.xn.x1.e_cmrr_int1      -4.111e-09
x18.x_stage2.inn-                  -0.00180002
x18.x_stage2.xn.x1.preout          -0.00159997
x18.x_stage2.xn.x1.n_p2_drive      -0.00159997
x18.x_stage2.xn.x1.preout2         -0.00159997
x18.x_stage2.xn.x1.n_vac           -0.00159997
x18.x_stage2.xn.x1.n_limited       -0.00159997
x18.out2_n                         -0.00160002
x18.opamp_in_minus                 -0.00427284
out_lm3886                          -0.0110011
x18.opamp_in_plus                  -0.00327274
x18.x_stage3.x1.in_plus_offset     -0.00427274
x18.x_stage3.x1.in_plus_final      -0.00427273
x18.x_stage3.x1.e_cmrr_int1       -1.19306e-08
x18.x_stage3.x1.preout              -0.0110011
x18.x_stage3.x1.n_p2_drive          -0.0110011
x18.x_stage3.x1.preout2             -0.0110011
x18.x_stage3.x1.n_vac               -0.0110011
x18.x_stage3.x1.n_limited           -0.0110011
x19.x_stage1.xp.x1.in_plus_offset          -0.003
x19.x_stage1.xp.x1.in_plus_final     -0.00299985
x19.x_stage1.xp.x1.e_cmrr_int1    -1.50002e-07
x19.x_stage1.inp-                  -0.00300005
x19.x_stage1.xp.x1.preout          -0.00198005
x19.x_stage1.xp.x1.n_p2_drive      -0.00198005
x19.x_stage1.xp.x1.preout2         -0.00198005
x19.x_stage1.xp.x1.n_vac           -0.00198005
x19.x_stage1.xp.x1.n_limited       -0.00198005
x19.out1_p                         -0.00200005
x19.x_stage1.xn.x1.in_plus_offset          -0.003
x19.x_stage1.xn.x1.in_plus_final     -0.00299985
x19.x_stage1.xn.x1.e_cmrr_int1    -1.50002e-07
x19.x_stage1.inn-                  -0.00300005
x19.x_stage1.xn.x1.preout          -0.00198005
x19.x_stage1.xn.x1.n_p2_drive      -0.00198005
x19.x_stage1.xn.x1.preout2         -0.00198005
x19.x_stage1.xn.x1.n_vac           -0.00198005
x19.x_stage1.xn.x1.n_limited       -0.00198005
x19.out1_n                         -0.00200005
x19.x_stage2.xp.x1.in_plus_offset     -0.00500005
x19.x_stage2.xp.x1.in_plus_final      -0.0049997
x19.x_stage2.xp.x1.e_cmrr_int1    -3.50007e-07
x19.x_stage2.inp-                   -0.0050001
x19.x_stage2.xp.x1.preout          -0.00398137
x19.x_stage2.xp.x1.n_p2_drive      -0.00398137
x19.x_stage2.xp.x1.preout2         -0.00398137
x19.x_stage2.xp.x1.n_vac           -0.00398137
x19.x_stage2.xp.x1.n_limited       -0.00398137
x19.out2_p                          -0.0040001
x19.x_stage2.xn.x1.in_plus_offset     -0.00500005
x19.x_stage2.xn.x1.in_plus_final      -0.0049997
x19.x_stage2.xn.x1.e_cmrr_int1    -3.50007e-07
x19.x_stage2.inn-                   -0.0050001
x19.x_stage2.xn.x1.preout          -0.00397836
x19.x_stage2.xn.x1.n_p2_drive      -0.00397836
x19.x_stage2.xn.x1.preout2         -0.00397836
x19.x_stage2.xn.x1.n_vac           -0.00397836
x19.x_stage2.xn.x1.n_limited       -0.00397836
x19.out2_n                         -0.00400009
x19.opamp_in_minus                  -0.0157293
out_lt1210                          -0.0330214
x19.opamp_in_plus                   -0.0127274
x19.x_stage3.x1.in_plus_offset      -0.0157274
x19.x_stage3.x1.in_plus_final        -0.015726
x19.x_stage3.x1.e_cmrr_int1       -1.42283e-06
x19.x_stage3.x1.preout              -0.0330231
x19.x_stage3.x1.n_p2_drive          -0.0330231
x19.x_stage3.x1.preout2             -0.0330231
x19.x_stage3.x1.n_vac               -0.0330231
x19.x_stage3.x1.n_limited           -0.0330231
b.x19.x_stage3.x1.b2#branch                  0
b.x19.x_stage3.x1.be_cmrr#branch               0
b.x19.x_stage2.xn.x1.b2#branch               0
b.x19.x_stage2.xn.x1.be_cmrr#branch               0
b.x19.x_stage2.xp.x1.b2#branch               0
b.x19.x_stage2.xp.x1.be_cmrr#branch               0
b.x19.x_stage1.xn.x1.b2#branch               0
b.x19.x_stage1.xn.x1.be_cmrr#branch               0
b.x19.x_stage1.xp.x1.b2#branch               0
b.x19.x_stage1.xp.x1.be_cmrr#branch               0
b.x18.x_stage3.x1.b2#branch                  0
b.x18.x_stage3.x1.be_cmrr#branch               0
b.x18.x_stage2.xn.x1.b2#branch               0
b.x18.x_stage2.xn.x1.be_cmrr#branch               0
b.x18.x_stage2.xp.x1.b2#branch               0
b.x18.x_stage2.xp.x1.be_cmrr#branch               0
b.x18.x_stage1.xn.x1.b2#branch               0
b.x18.x_stage1.xn.x1.be_cmrr#branch               0
b.x18.x_stage1.xp.x1.b2#branch               0
b.x18.x_stage1.xp.x1.be_cmrr#branch               0
b.x17.x_stage3.x1.b2#branch                  0
b.x17.x_stage3.x1.be_cmrr#branch               0
b.x17.x_stage2.xn.x1.b2#branch               0
b.x17.x_stage2.xn.x1.be_cmrr#branch               0
b.x17.x_stage2.xp.x1.b2#branch               0
b.x17.x_stage2.xp.x1.be_cmrr#branch               0
b.x17.x_stage1.xn.x1.b2#branch               0
b.x17.x_stage1.xn.x1.be_cmrr#branch               0
b.x17.x_stage1.xp.x1.b2#branch               0
b.x17.x_stage1.xp.x1.be_cmrr#branch               0
b.x16.x_stage3.x1.b2#branch                  0
b.x16.x_stage3.x1.be_cmrr#branch               0
b.x16.x_stage2.xn.x1.b2#branch               0
b.x16.x_stage2.xn.x1.be_cmrr#branch               0
b.x16.x_stage2.xp.x1.b2#branch               0
b.x16.x_stage2.xp.x1.be_cmrr#branch               0
b.x16.x_stage1.xn.x1.b2#branch               0
b.x16.x_stage1.xn.x1.be_cmrr#branch               0
b.x16.x_stage1.xp.x1.b2#branch               0
b.x16.x_stage1.xp.x1.be_cmrr#branch               0
b.x15.x_stage3.x1.b2#branch                  0
b.x15.x_stage3.x1.be_cmrr#branch               0
b.x15.x_stage2.xn.x1.b2#branch               0
b.x15.x_stage2.xn.x1.be_cmrr#branch               0
b.x15.x_stage2.xp.x1.b2#branch               0
b.x15.x_stage2.xp.x1.be_cmrr#branch               0
b.x15.x_stage1.xn.x1.b2#branch               0
b.x15.x_stage1.xn.x1.be_cmrr#branch               0
b.x15.x_stage1.xp.x1.b2#branch               0
b.x15.x_stage1.xp.x1.be_cmrr#branch               0
b.x14.x_stage3.x1.b2#branch                  0
b.x14.x_stage3.x1.be_cmrr#branch               0
b.x14.x_stage2.xn.x1.b2#branch               0
b.x14.x_stage2.xn.x1.be_cmrr#branch               0
b.x14.x_stage2.xp.x1.b2#branch               0
b.x14.x_stage2.xp.x1.be_cmrr#branch               0
b.x14.x_stage1.xn.x1.b2#branch               0
b.x14.x_stage1.xn.x1.be_cmrr#branch               0
b.x14.x_stage1.xp.x1.b2#branch               0
b.x14.x_stage1.xp.x1.be_cmrr#branch               0
b.x13.x_stage3.x1.b2#branch                  0
b.x13.x_stage3.x1.be_cmrr#branch               0
b.x13.x_stage2.xn.x1.b2#branch               0
b.x13.x_stage2.xn.x1.be_cmrr#branch               0
b.x13.x_stage2.xp.x1.b2#branch               0
b.x13.x_stage2.xp.x1.be_cmrr#branch               0
b.x13.x_stage1.xn.x1.b2#branch               0
b.x13.x_stage1.xn.x1.be_cmrr#branch               0
b.x13.x_stage1.xp.x1.b2#branch               0
b.x13.x_stage1.xp.x1.be_cmrr#branch               0
b.x12.x_stage3.x1.b2#branch                  0
b.x12.x_stage3.x1.be_cmrr#branch               0
b.x12.x_stage2.xn.x1.b2#branch               0
b.x12.x_stage2.xn.x1.be_cmrr#branch               0
b.x12.x_stage2.xp.x1.b2#branch               0
b.x12.x_stage2.xp.x1.be_cmrr#branch               0
b.x12.x_stage1.xn.x1.b2#branch               0
b.x12.x_stage1.xn.x1.be_cmrr#branch               0
b.x12.x_stage1.xp.x1.b2#branch               0
b.x12.x_stage1.xp.x1.be_cmrr#branch               0
b.x11.x_stage3.x1.b2#branch                  0
b.x11.x_stage3.x1.be_cmrr#branch               0
b.x11.x_stage2.xn.x1.b2#branch               0
b.x11.x_stage2.xn.x1.be_cmrr#branch               0
b.x11.x_stage2.xp.x1.b2#branch               0
b.x11.x_stage2.xp.x1.be_cmrr#branch               0
b.x11.x_stage1.xn.x1.b2#branch               0
b.x11.x_stage1.xn.x1.be_cmrr#branch               0
b.x11.x_stage1.xp.x1.b2#branch               0
b.x11.x_stage1.xp.x1.be_cmrr#branch               0
b.x10.x_stage3.x1.b2#branch                  0
b.x10.x_stage3.x1.be_cmrr#branch               0
b.x10.x_stage2.xn.x1.b2#branch               0
b.x10.x_stage2.xn.x1.be_cmrr#branch               0
b.x10.x_stage2.xp.x1.b2#branch               0
b.x10.x_stage2.xp.x1.be_cmrr#branch               0
b.x10.x_stage1.xn.x1.b2#branch               0
b.x10.x_stage1.xn.x1.be_cmrr#branch               0
b.x10.x_stage1.xp.x1.b2#branch               0
b.x10.x_stage1.xp.x1.be_cmrr#branch               0
b.x9.x_stage3.x1.b2#branch                   0
b.x9.x_stage3.x1.be_cmrr#branch               0
b.x9.x_stage2.xn.x1.b2#branch                0
b.x9.x_stage2.xn.x1.be_cmrr#branch               0
b.x9.x_stage2.xp.x1.b2#branch                0
b.x9.x_stage2.xp.x1.be_cmrr#branch               0
b.x9.x_stage1.xn.x1.b2#branch                0
b.x9.x_stage1.xn.x1.be_cmrr#branch               0
b.x9.x_stage1.xp.x1.b2#branch                0
b.x9.x_stage1.xp.x1.be_cmrr#branch               0
b.x8.x_stage3.x1.b2#branch                   0
b.x8.x_stage3.x1.be_cmrr#branch               0
b.x8.x_stage2.xn.x1.b2#branch                0
b.x8.x_stage2.xn.x1.be_cmrr#branch               0
b.x8.x_stage2.xp.x1.b2#branch                0
b.x8.x_stage2.xp.x1.be_cmrr#branch               0
b.x8.x_stage1.xn.x1.b2#branch                0
b.x8.x_stage1.xn.x1.be_cmrr#branch               0
b.x8.x_stage1.xp.x1.b2#branch                0
b.x8.x_stage1.xp.x1.be_cmrr#branch               0
b.x7.x_stage3.x1.b2#branch                   0
b.x7.x_stage3.x1.be_cmrr#branch               0
b.x7.x_stage2.xn.x1.b2#branch                0
b.x7.x_stage2.xn.x1.be_cmrr#branch               0
b.x7.x_stage2.xp.x1.b2#branch                0
b.x7.x_stage2.xp.x1.be_cmrr#branch               0
b.x7.x_stage1.xn.x1.b2#branch                0
b.x7.x_stage1.xn.x1.be_cmrr#branch               0
b.x7.x_stage1.xp.x1.b2#branch                0
b.x7.x_stage1.xp.x1.be_cmrr#branch               0
b.x6.x_stage3.x1.b2#branch                   0
b.x6.x_stage3.x1.be_cmrr#branch               0
b.x6.x_stage2.xn.x1.b2#branch                0
b.x6.x_stage2.xn.x1.be_cmrr#branch               0
b.x6.x_stage2.xp.x1.b2#branch                0
b.x6.x_stage2.xp.x1.be_cmrr#branch               0
b.x6.x_stage1.xn.x1.b2#branch                0
b.x6.x_stage1.xn.x1.be_cmrr#branch               0
b.x6.x_stage1.xp.x1.b2#branch                0
b.x6.x_stage1.xp.x1.be_cmrr#branch               0
b.x5.x_stage3.x1.b2#branch                   0
b.x5.x_stage3.x1.be_cmrr#branch               0
b.x5.x_stage2.xn.x1.b2#branch                0
b.x5.x_stage2.xn.x1.be_cmrr#branch               0
b.x5.x_stage2.xp.x1.b2#branch                0
b.x5.x_stage2.xp.x1.be_cmrr#branch               0
b.x5.x_stage1.xn.x1.b2#branch                0
b.x5.x_stage1.xn.x1.be_cmrr#branch               0
b.x5.x_stage1.xp.x1.b2#branch                0
b.x5.x_stage1.xp.x1.be_cmrr#branch               0
b.x4.x_stage3.x1.b2#branch                   0
b.x4.x_stage3.x1.be_cmrr#branch               0
b.x4.x_stage2.xn.x1.b2#branch                0
b.x4.x_stage2.xn.x1.be_cmrr#branch               0
b.x4.x_stage2.xp.x1.b2#branch                0
b.x4.x_stage2.xp.x1.be_cmrr#branch               0
b.x4.x_stage1.xn.x1.b2#branch                0
b.x4.x_stage1.xn.x1.be_cmrr#branch               0
b.x4.x_stage1.xp.x1.b2#branch                0
b.x4.x_stage1.xp.x1.be_cmrr#branch               0
b.x3.x_stage3.x1.b2#branch                   0
b.x3.x_stage3.x1.be_cmrr#branch               0
b.x3.x_stage2.xn.x1.b2#branch                0
b.x3.x_stage2.xn.x1.be_cmrr#branch               0
b.x3.x_stage2.xp.x1.b2#branch                0
b.x3.x_stage2.xp.x1.be_cmrr#branch               0
b.x3.x_stage1.xn.x1.b2#branch                0
b.x3.x_stage1.xn.x1.be_cmrr#branch               0
b.x3.x_stage1.xp.x1.b2#branch                0
b.x3.x_stage1.xp.x1.be_cmrr#branch               0
b.x2.x_stage3.x1.b2#branch                   0
b.x2.x_stage3.x1.be_cmrr#branch               0
b.x2.x_stage2.xn.x1.b2#branch                0
b.x2.x_stage2.xn.x1.be_cmrr#branch               0
b.x2.x_stage2.xp.x1.b2#branch                0
b.x2.x_stage2.xp.x1.be_cmrr#branch               0
b.x2.x_stage1.xn.x1.b2#branch                0
b.x2.x_stage1.xn.x1.be_cmrr#branch               0
b.x2.x_stage1.xp.x1.b2#branch                0
b.x2.x_stage1.xp.x1.be_cmrr#branch               0
b.x1.x_stage3.x1.b2#branch                   0
b.x1.x_stage3.x1.be_cmrr#branch               0
b.x1.x_stage2.xn.x1.b2#branch                0
b.x1.x_stage2.xn.x1.be_cmrr#branch               0
b.x1.x_stage2.xp.x1.b2#branch                0
b.x1.x_stage2.xp.x1.be_cmrr#branch               0
b.x1.x_stage1.xn.x1.b2#branch                0
b.x1.x_stage1.xn.x1.be_cmrr#branch               0
b.x1.x_stage1.xp.x1.b2#branch                0
b.x1.x_stage1.xp.x1.be_cmrr#branch               0
b.x0.x_stage3.b2#branch                      0
b.x0.x_stage3.be_cmrr#branch                 0
b.x0.x_stage2.xn.b2#branch                   0
b.x0.x_stage2.xn.be_cmrr#branch               0
b.x0.x_stage2.xp.b2#branch                   0
b.x0.x_stage2.xp.be_cmrr#branch               0
b.x0.x_stage1.xn.b2#branch                   0
b.x0.x_stage1.xn.be_cmrr#branch               0
b.x0.x_stage1.xp.b2#branch                   0
b.x0.x_stage1.xp.be_cmrr#branch               0
e.x19.x_stage3.x1.e_p2#branch                0
e.x19.x_stage3.x1.e_cmrr#branch           1e-06
e.x19.x_stage2.xn.x1.e_p2#branch               0
e.x19.x_stage2.xn.x1.e_cmrr#branch           1e-06
e.x19.x_stage2.xp.x1.e_p2#branch               0
e.x19.x_stage2.xp.x1.e_cmrr#branch           1e-06
e.x19.x_stage1.xn.x1.e_p2#branch               0
e.x19.x_stage1.xn.x1.e_cmrr#branch           1e-06
e.x19.x_stage1.xp.x1.e_p2#branch               0
e.x19.x_stage1.xp.x1.e_cmrr#branch           1e-06
e.x18.x_stage3.x1.e_p2#branch                0
e.x18.x_stage3.x1.e_cmrr#branch           2e-07
e.x18.x_stage2.xn.x1.e_p2#branch               0
e.x18.x_stage2.xn.x1.e_cmrr#branch           2e-07
e.x18.x_stage2.xp.x1.e_p2#branch               0
e.x18.x_stage2.xp.x1.e_cmrr#branch           2e-07
e.x18.x_stage1.xn.x1.e_p2#branch               0
e.x18.x_stage1.xn.x1.e_cmrr#branch           2e-07
e.x18.x_stage1.xp.x1.e_p2#branch               0
e.x18.x_stage1.xp.x1.e_cmrr#branch           2e-07
e.x17.x_stage3.x1.e_p2#branch                0
e.x17.x_stage3.x1.e_cmrr#branch     3.99997e-11
e.x17.x_stage2.xn.x1.e_p2#branch               0
e.x17.x_stage2.xn.x1.e_cmrr#branch     3.99041e-11
e.x17.x_stage2.xp.x1.e_p2#branch               0
e.x17.x_stage2.xp.x1.e_cmrr#branch     3.99609e-11
e.x17.x_stage1.xn.x1.e_p2#branch               0
e.x17.x_stage1.xn.x1.e_cmrr#branch     3.99999e-11
e.x17.x_stage1.xp.x1.e_p2#branch               0
e.x17.x_stage1.xp.x1.e_cmrr#branch     3.99999e-11
e.x16.x_stage3.x1.e_p2#branch                0
e.x16.x_stage3.x1.e_cmrr#branch     1.00002e-06
e.x16.x_stage2.xn.x1.e_p2#branch               0
e.x16.x_stage2.xn.x1.e_cmrr#branch           1e-06
e.x16.x_stage2.xp.x1.e_p2#branch               0
e.x16.x_stage2.xp.x1.e_cmrr#branch           1e-06
e.x16.x_stage1.xn.x1.e_p2#branch               0
e.x16.x_stage1.xn.x1.e_cmrr#branch           1e-06
e.x16.x_stage1.xp.x1.e_p2#branch               0
e.x16.x_stage1.xp.x1.e_cmrr#branch           1e-06
e.x15.x_stage3.x1.e_p2#branch                0
e.x15.x_stage3.x1.e_cmrr#branch           2e-06
e.x15.x_stage2.xn.x1.e_p2#branch               0
e.x15.x_stage2.xn.x1.e_cmrr#branch           2e-06
e.x15.x_stage2.xp.x1.e_p2#branch               0
e.x15.x_stage2.xp.x1.e_cmrr#branch           2e-06
e.x15.x_stage1.xn.x1.e_p2#branch               0
e.x15.x_stage1.xn.x1.e_cmrr#branch           2e-06
e.x15.x_stage1.xp.x1.e_p2#branch               0
e.x15.x_stage1.xp.x1.e_cmrr#branch           2e-06
e.x14.x_stage3.x1.e_p2#branch                0
e.x14.x_stage3.x1.e_cmrr#branch         1.5e-05
e.x14.x_stage2.xn.x1.e_p2#branch               0
e.x14.x_stage2.xn.x1.e_cmrr#branch         1.5e-05
e.x14.x_stage2.xp.x1.e_p2#branch               0
e.x14.x_stage2.xp.x1.e_cmrr#branch         1.5e-05
e.x14.x_stage1.xn.x1.e_p2#branch               0
e.x14.x_stage1.xn.x1.e_cmrr#branch         1.5e-05
e.x14.x_stage1.xp.x1.e_p2#branch               0
e.x14.x_stage1.xp.x1.e_cmrr#branch         1.5e-05
e.x13.x_stage3.x1.e_p2#branch                0
e.x13.x_stage3.x1.e_cmrr#branch           5e-05
e.x13.x_stage2.xn.x1.e_p2#branch               0
e.x13.x_stage2.xn.x1.e_cmrr#branch     4.99999e-05
e.x13.x_stage2.xp.x1.e_p2#branch               0
e.x13.x_stage2.xp.x1.e_cmrr#branch     4.99999e-05
e.x13.x_stage1.xn.x1.e_p2#branch               0
e.x13.x_stage1.xn.x1.e_cmrr#branch           5e-05
e.x13.x_stage1.xp.x1.e_p2#branch               0
e.x13.x_stage1.xp.x1.e_cmrr#branch           5e-05
e.x12.x_stage3.x1.e_p2#branch                0
e.x12.x_stage3.x1.e_cmrr#branch    -4.11826e-10
e.x12.x_stage2.xn.x1.e_p2#branch               0
e.x12.x_stage2.xn.x1.e_cmrr#branch    -3.86426e-09
e.x12.x_stage2.xp.x1.e_p2#branch               0
e.x12.x_stage2.xp.x1.e_cmrr#branch    -3.86453e-09
e.x12.x_stage1.xn.x1.e_p2#branch               0
e.x12.x_stage1.xn.x1.e_cmrr#branch     2.20122e-09
e.x12.x_stage1.xp.x1.e_p2#branch               0
e.x12.x_stage1.xp.x1.e_cmrr#branch     2.20122e-09
e.x11.x_stage3.x1.e_p2#branch                0
e.x11.x_stage3.x1.e_cmrr#branch    -3.10297e-10
e.x11.x_stage2.xn.x1.e_p2#branch               0
e.x11.x_stage2.xn.x1.e_cmrr#branch     3.51839e-10
e.x11.x_stage2.xp.x1.e_p2#branch               0
e.x11.x_stage2.xp.x1.e_cmrr#branch     3.51839e-10
e.x11.x_stage1.xn.x1.e_p2#branch               0
e.x11.x_stage1.xn.x1.e_cmrr#branch     4.99995e-12
e.x11.x_stage1.xp.x1.e_p2#branch               0
e.x11.x_stage1.xp.x1.e_cmrr#branch     4.99995e-12
e.x10.x_stage3.x1.e_p2#branch                0
e.x10.x_stage3.x1.e_cmrr#branch         2.5e-07
e.x10.x_stage2.xn.x1.e_p2#branch               0
e.x10.x_stage2.xn.x1.e_cmrr#branch         2.5e-07
e.x10.x_stage2.xp.x1.e_p2#branch               0
e.x10.x_stage2.xp.x1.e_cmrr#branch         2.5e-07
e.x10.x_stage1.xn.x1.e_p2#branch               0
e.x10.x_stage1.xn.x1.e_cmrr#branch         2.5e-07
e.x10.x_stage1.xp.x1.e_p2#branch               0
e.x10.x_stage1.xp.x1.e_cmrr#branch         2.5e-07
e.x9.x_stage3.x1.e_p2#branch                 0
e.x9.x_stage3.x1.e_cmrr#branch     2.47295e-08
e.x9.x_stage2.xn.x1.e_p2#branch               0
e.x9.x_stage2.xn.x1.e_cmrr#branch    -2.69456e-05
e.x9.x_stage2.xp.x1.e_p2#branch               0
e.x9.x_stage2.xp.x1.e_cmrr#branch    -2.69456e-05
e.x9.x_stage1.xn.x1.e_p2#branch               0
e.x9.x_stage1.xn.x1.e_cmrr#branch     2.99681e-05
e.x9.x_stage1.xp.x1.e_p2#branch               0
e.x9.x_stage1.xp.x1.e_cmrr#branch     2.99681e-05
e.x8.x_stage3.x1.e_p2#branch                 0
e.x8.x_stage3.x1.e_cmrr#branch    -2.40245e-10
e.x8.x_stage2.xn.x1.e_p2#branch               0
e.x8.x_stage2.xn.x1.e_cmrr#branch    -2.99972e-08
e.x8.x_stage2.xp.x1.e_p2#branch               0
e.x8.x_stage2.xp.x1.e_cmrr#branch    -2.99972e-08
e.x8.x_stage1.xn.x1.e_p2#branch               0
e.x8.x_stage1.xn.x1.e_cmrr#branch       3.003e-08
e.x8.x_stage1.xp.x1.e_p2#branch               0
e.x8.x_stage1.xp.x1.e_cmrr#branch       3.003e-08
e.x7.x_stage3.x1.e_p2#branch                 0
e.x7.x_stage3.x1.e_cmrr#branch     0.000166289
e.x7.x_stage2.xn.x1.e_p2#branch               0
e.x7.x_stage2.xn.x1.e_cmrr#branch     -0.00224257
e.x7.x_stage2.xp.x1.e_p2#branch               0
e.x7.x_stage2.xp.x1.e_cmrr#branch      -0.0022432
e.x7.x_stage1.xn.x1.e_p2#branch               0
e.x7.x_stage1.xn.x1.e_cmrr#branch      0.00355065
e.x7.x_stage1.xp.x1.e_p2#branch               0
e.x7.x_stage1.xp.x1.e_cmrr#branch      0.00355065
e.x6.x_stage3.x1.e_p2#branch                 0
e.x6.x_stage3.x1.e_cmrr#branch     9.58573e-06
e.x6.x_stage2.xn.x1.e_p2#branch               0
e.x6.x_stage2.xn.x1.e_cmrr#branch    -0.000216256
e.x6.x_stage2.xp.x1.e_p2#branch               0
e.x6.x_stage2.xp.x1.e_cmrr#branch    -0.000216293
e.x6.x_stage1.xn.x1.e_p2#branch               0
e.x6.x_stage1.xn.x1.e_cmrr#branch     0.000289872
e.x6.x_stage1.xp.x1.e_p2#branch               0
e.x6.x_stage1.xp.x1.e_cmrr#branch     0.000289872
e.x5.x_stage3.x1.e_p2#branch                 0
e.x5.x_stage3.x1.e_cmrr#branch           2e-07
e.x5.x_stage2.xn.x1.e_p2#branch               0
e.x5.x_stage2.xn.x1.e_cmrr#branch           2e-07
e.x5.x_stage2.xp.x1.e_p2#branch               0
e.x5.x_stage2.xp.x1.e_cmrr#branch           2e-07
e.x5.x_stage1.xn.x1.e_p2#branch               0
e.x5.x_stage1.xn.x1.e_cmrr#branch           2e-07
e.x5.x_stage1.xp.x1.e_p2#branch               0
e.x5.x_stage1.xp.x1.e_cmrr#branch           2e-07
e.x4.x_stage3.x1.e_p2#branch                 0
e.x4.x_stage3.x1.e_cmrr#branch     4.50001e-08
e.x4.x_stage2.xn.x1.e_p2#branch               0
e.x4.x_stage2.xn.x1.e_cmrr#branch         4.5e-08
e.x4.x_stage2.xp.x1.e_p2#branch               0
e.x4.x_stage2.xp.x1.e_cmrr#branch         4.5e-08
e.x4.x_stage1.xn.x1.e_p2#branch               0
e.x4.x_stage1.xn.x1.e_cmrr#branch         4.5e-08
e.x4.x_stage1.xp.x1.e_p2#branch               0
e.x4.x_stage1.xp.x1.e_cmrr#branch         4.5e-08
e.x3.x_stage3.x1.e_p2#branch                 0
e.x3.x_stage3.x1.e_cmrr#branch     2.26227e-10
e.x3.x_stage2.xn.x1.e_p2#branch               0
e.x3.x_stage2.xn.x1.e_cmrr#branch    -1.71099e-08
e.x3.x_stage2.xp.x1.e_p2#branch               0
e.x3.x_stage2.xp.x1.e_cmrr#branch    -1.71123e-08
e.x3.x_stage1.xn.x1.e_p2#branch               0
e.x3.x_stage1.xn.x1.e_cmrr#branch     2.00305e-08
e.x3.x_stage1.xp.x1.e_p2#branch               0
e.x3.x_stage1.xp.x1.e_cmrr#branch     2.00305e-08
e.x2.x_stage3.x1.e_p2#branch                 0
e.x2.x_stage3.x1.e_cmrr#branch     2.26227e-10
e.x2.x_stage2.xn.x1.e_p2#branch               0
e.x2.x_stage2.xn.x1.e_cmrr#branch    -1.71099e-08
e.x2.x_stage2.xp.x1.e_p2#branch               0
e.x2.x_stage2.xp.x1.e_cmrr#branch    -1.71122e-08
e.x2.x_stage1.xn.x1.e_p2#branch               0
e.x2.x_stage1.xn.x1.e_cmrr#branch     2.00305e-08
e.x2.x_stage1.xp.x1.e_p2#branch               0
e.x2.x_stage1.xp.x1.e_cmrr#branch     2.00305e-08
e.x1.x_stage3.x1.e_p2#branch                 0
e.x1.x_stage3.x1.e_cmrr#branch     0.000420602
e.x1.x_stage2.xn.x1.e_p2#branch               0
e.x1.x_stage2.xn.x1.e_cmrr#branch     -0.00373764
e.x1.x_stage2.xp.x1.e_p2#branch               0
e.x1.x_stage2.xp.x1.e_cmrr#branch     -0.00373923
e.x1.x_stage1.xn.x1.e_p2#branch               0
e.x1.x_stage1.xn.x1.e_cmrr#branch      0.00708474
e.x1.x_stage1.xp.x1.e_p2#branch               0
e.x1.x_stage1.xp.x1.e_cmrr#branch      0.00708474
e.x0.x_stage3.e_p2#branch                    0
e.x0.x_stage3.e_cmrr#branch         8.1549e-05
e.x0.x_stage2.xn.e_p2#branch                 0
e.x0.x_stage2.xn.e_cmrr#branch     -0.00150325
e.x0.x_stage2.xp.e_p2#branch                 0
e.x0.x_stage2.xp.e_cmrr#branch     -0.00150356
e.x0.x_stage1.xn.e_p2#branch                 0
e.x0.x_stage1.xn.e_cmrr#branch      0.00213594
e.x0.x_stage1.xp.e_p2#branch                 0
e.x0.x_stage1.xp.e_cmrr#branch      0.00213594
v.x19.x_stage3.x1.v_os#branch            1e-06
v.x19.x_stage2.xn.x1.v_os#branch           1e-06
v.x19.x_stage2.xp.x1.v_os#branch           1e-06
v.x19.x_stage1.xn.x1.v_os#branch           1e-06
v.x19.x_stage1.xp.x1.v_os#branch           1e-06
v.x18.x_stage3.x1.v_os#branch            2e-07
v.x18.x_stage2.xn.x1.v_os#branch           2e-07
v.x18.x_stage2.xp.x1.v_os#branch           2e-07
v.x18.x_stage1.xn.x1.v_os#branch           2e-07
v.x18.x_stage1.xp.x1.v_os#branch           2e-07
v.x17.x_stage3.x1.v_os#branch      3.99997e-11
v.x17.x_stage2.xn.x1.v_os#branch     3.99041e-11
v.x17.x_stage2.xp.x1.v_os#branch     3.99609e-11
v.x17.x_stage1.xn.x1.v_os#branch     3.99999e-11
v.x17.x_stage1.xp.x1.v_os#branch     3.99999e-11
v.x16.x_stage3.x1.v_os#branch      1.00002e-06
v.x16.x_stage2.xn.x1.v_os#branch           1e-06
v.x16.x_stage2.xp.x1.v_os#branch           1e-06
v.x16.x_stage1.xn.x1.v_os#branch           1e-06
v.x16.x_stage1.xp.x1.v_os#branch           1e-06
v.x15.x_stage3.x1.v_os#branch            2e-06
v.x15.x_stage2.xn.x1.v_os#branch           2e-06
v.x15.x_stage2.xp.x1.v_os#branch           2e-06
v.x15.x_stage1.xn.x1.v_os#branch           2e-06
v.x15.x_stage1.xp.x1.v_os#branch           2e-06
v.x14.x_stage3.x1.v_os#branch          1.5e-05
v.x14.x_stage2.xn.x1.v_os#branch         1.5e-05
v.x14.x_stage2.xp.x1.v_os#branch         1.5e-05
v.x14.x_stage1.xn.x1.v_os#branch         1.5e-05
v.x14.x_stage1.xp.x1.v_os#branch         1.5e-05
v.x13.x_stage3.x1.v_os#branch            5e-05
v.x13.x_stage2.xn.x1.v_os#branch     4.99999e-05
v.x13.x_stage2.xp.x1.v_os#branch     4.99999e-05
v.x13.x_stage1.xn.x1.v_os#branch           5e-05
v.x13.x_stage1.xp.x1.v_os#branch           5e-05
v.x12.x_stage3.x1.v_os#branch     -4.11826e-10
v.x12.x_stage2.xn.x1.v_os#branch    -3.86426e-09
v.x12.x_stage2.xp.x1.v_os#branch    -3.86453e-09
v.x12.x_stage1.xn.x1.v_os#branch     2.20122e-09
v.x12.x_stage1.xp.x1.v_os#branch     2.20122e-09
v.x11.x_stage3.x1.v_os#branch     -3.10297e-10
v.x11.x_stage2.xn.x1.v_os#branch     3.51839e-10
v.x11.x_stage2.xp.x1.v_os#branch     3.51839e-10
v.x11.x_stage1.xn.x1.v_os#branch     4.99995e-12
v.x11.x_stage1.xp.x1.v_os#branch     4.99995e-12
v.x10.x_stage3.x1.v_os#branch          2.5e-07
v.x10.x_stage2.xn.x1.v_os#branch         2.5e-07
v.x10.x_stage2.xp.x1.v_os#branch         2.5e-07
v.x10.x_stage1.xn.x1.v_os#branch         2.5e-07
v.x10.x_stage1.xp.x1.v_os#branch         2.5e-07
v.x9.x_stage3.x1.v_os#branch       2.47295e-08
v.x9.x_stage2.xn.x1.v_os#branch    -2.69456e-05
v.x9.x_stage2.xp.x1.v_os#branch    -2.69456e-05
v.x9.x_stage1.xn.x1.v_os#branch     2.99681e-05
v.x9.x_stage1.xp.x1.v_os#branch     2.99681e-05
v.x8.x_stage3.x1.v_os#branch      -2.40245e-10
v.x8.x_stage2.xn.x1.v_os#branch    -2.99972e-08
v.x8.x_stage2.xp.x1.v_os#branch    -2.99972e-08
v.x8.x_stage1.xn.x1.v_os#branch       3.003e-08
v.x8.x_stage1.xp.x1.v_os#branch       3.003e-08
v.x7.x_stage3.x1.v_os#branch       0.000166289
v.x7.x_stage2.xn.x1.v_os#branch     -0.00224257
v.x7.x_stage2.xp.x1.v_os#branch      -0.0022432
v.x7.x_stage1.xn.x1.v_os#branch      0.00355065
v.x7.x_stage1.xp.x1.v_os#branch      0.00355065
v.x6.x_stage3.x1.v_os#branch       9.58573e-06
v.x6.x_stage2.xn.x1.v_os#branch    -0.000216256
v.x6.x_stage2.xp.x1.v_os#branch    -0.000216293
v.x6.x_stage1.xn.x1.v_os#branch     0.000289872
v.x6.x_stage1.xp.x1.v_os#branch     0.000289872
v.x5.x_stage3.x1.v_os#branch             2e-07
v.x5.x_stage2.xn.x1.v_os#branch           2e-07
v.x5.x_stage2.xp.x1.v_os#branch           2e-07
v.x5.x_stage1.xn.x1.v_os#branch           2e-07
v.x5.x_stage1.xp.x1.v_os#branch           2e-07
v.x4.x_stage3.x1.v_os#branch       4.50001e-08
v.x4.x_stage2.xn.x1.v_os#branch         4.5e-08
v.x4.x_stage2.xp.x1.v_os#branch         4.5e-08
v.x4.x_stage1.xn.x1.v_os#branch         4.5e-08
v.x4.x_stage1.xp.x1.v_os#branch         4.5e-08
v.x3.x_stage3.x1.v_os#branch       2.26227e-10
v.x3.x_stage2.xn.x1.v_os#branch    -1.71099e-08
v.x3.x_stage2.xp.x1.v_os#branch    -1.71123e-08
v.x3.x_stage1.xn.x1.v_os#branch     2.00305e-08
v.x3.x_stage1.xp.x1.v_os#branch     2.00305e-08
v.x2.x_stage3.x1.v_os#branch       2.26227e-10
v.x2.x_stage2.xn.x1.v_os#branch    -1.71099e-08
v.x2.x_stage2.xp.x1.v_os#branch    -1.71122e-08
v.x2.x_stage1.xn.x1.v_os#branch     2.00305e-08
v.x2.x_stage1.xp.x1.v_os#branch     2.00305e-08
v.x1.x_stage3.x1.v_os#branch       0.000420602
v.x1.x_stage2.xn.x1.v_os#branch     -0.00373764
v.x1.x_stage2.xp.x1.v_os#branch     -0.00373923
v.x1.x_stage1.xn.x1.v_os#branch      0.00708474
v.x1.x_stage1.xp.x1.v_os#branch      0.00708474
v.x0.x_stage3.v_os#branch           8.1549e-05
v.x0.x_stage2.xn.v_os#branch       -0.00150325
v.x0.x_stage2.xp.v_os#branch       -0.00150356
v.x0.x_stage1.xn.v_os#branch        0.00213594
v.x0.x_stage1.xp.v_os#branch        0.00213594
v_in_plus#branch                    -0.0131609
v_in_minus#branch                   -0.0131609
vee#branch                                   0
vcc#branch                                   0


No. of Data Rows : 400

Warning: command 'plot' is not available during batch simulation, ignored!
    You may use Gnuplot instead.

Note: Simulation executed from .control section 
