Error opening code model "/C"
: No se puede encontrar el módulo especificado.

Error: Library /C couldn't be loaded!
Error opening code model "/C"
: No se puede encontrar el módulo especificado.

Error: Library /C couldn't be loaded!
Error opening code model "/C"
: No se puede encontrar el módulo especificado.

Error: Library /C couldn't be loaded!
Error opening code model "/C"
: No se puede encontrar el módulo especificado.

Error: Library /C couldn't be loaded!
Error opening code model "/C"
: No se puede encontrar el módulo especificado.

Error: Library /C couldn't be loaded!
Error opening code model "/C"
: No se puede encontrar el módulo especificado.

Error: Library /C couldn't be loaded!
Error opening code model "/C"
: No se puede encontrar el módulo especificado.

Error: Library /C couldn't be loaded!

Note: No compatibility mode selected!


Circuit: * circuito rc simple

Doing analysis at TEMP = 27.000000 and TNOM = 27.000000

Using SPARSE 1.3 as Direct Linear Solver

No. of Data Rows : 1
in = 5.000000e+00
out = 5.000000e+00
vin#branch = 0.000000e+00
Doing analysis at TEMP = 27.000000 and TNOM = 27.000000

Using SPARSE 1.3 as Direct Linear Solver
Operating point simulation skipped by 'uic',
  now using transient initial conditions.

No. of Data Rows : 214

Warning: command 'plot' is not available during batch simulation, ignored!
    You may use Gnuplot instead.


Warning: command 'plot' is not available during batch simulation, ignored!
    You may use Gnuplot instead.

Note: Simulation executed from .control section 
